%%%%%%%%%%%%%%%%%%%%%%%%%%%%%%%%%%%%%%%%%%%%%%%%%%%%%%%%%%%%%%%%%%%%%%%%%%%%%%%%
%                                                                              %
% SU2 configuration file                                                       %
% Case description: Hypersonic Shock Wave and Boundary Layer Interaction       %
% Author: Agadheesh Sivakumar                                                  %
% Date: 2023                                                                   %
% SU2 Version: 7.3.0 "Blackbird"                                               %
%                                                                              %
%%%%%%%%%%%%%%%%%%%%%%%%%%%%%%%%%%%%%%%%%%%%%%%%%%%%%%%%%%%%%%%%%%%%%%%%%%%%%%%%

% ------------- DIRECT, ADJOINT, AND LINEARIZED PROBLEM DEFINITION -----------%
%
SOLVER= RANS
KIND_TURB_MODEL= SA
MATH_PROBLEM= DIRECT
RESTART_SOL= NO
REF_DIMENSIONALIZATION= FREESTREAM_VEL_EQ_MACH
%
% ----------- COMPRESSIBLE AND INCOMPRESSIBLE FREE-STREAM DEFINITION ----------%
%
MACH_NUMBER= 5.0
AOA= 0.0
SIDESLIP_ANGLE= 0.0
INIT_OPTION= TD_CONDITIONS
FREESTREAM_OPTION= TEMPERATURE_FS
FREESTREAM_PRESSURE= 4006.8
FREESTREAM_TEMPERATURE= 68.306
REYNOLDS_NUMBER= 37000000
REYNOLDS_LENGTH= 1
%
% ---------------------------- FLUID MODELS ---------------------------------- %
%
FLUID_MODEL= STANDARD_AIR
GAMMA_VALUE= 1.4
GAS_CONSTANT= 287.058
%
VISCOSITY_MODEL= SUTHERLAND
MU_REF= 1.716E-5
MU_T_REF= 273.15
SUTHERLAND_CONSTANT= 110.4
%
CONDUCTIVITY_MODEL= CONSTANT_PRANDTL
PRANDTL_LAM= 0.72
PRANDTL_TURB= 0.90
%
% ---------------------- REFERENCE VALUE DEFINITION ---------------------------%
%
REF_ORIGIN_MOMENT_X = 0.00
REF_ORIGIN_MOMENT_Y = 0.00
REF_ORIGIN_MOMENT_Z = 0.00
REF_LENGTH= 0.500
REF_AREA= 0.500
%
% -------------------- BOUNDARY CONDITION DEFINITION -------------------------%
%
MARKER_HEATFLUX= ( bottom, 0.0, top, 0.0 )
MARKER_SUPERSONIC_INLET= ( inlet, 68.306, 4006.8, 829.20, 0.0, 0.0 )
MARKER_OUTLET= ( outlet, 4006.8 )
MARKER_SYM= ( sym, symm )
MARKER_PLOTTING= ( bottom )
MARKER_MONITORING= ( bottom )
%
% ------------- SPATIAL DISCRETIZATION ---------------------------------------%
%
NUM_METHOD_GRAD= GREEN_GAUSS
CONV_NUM_METHOD_FLOW= ROE
ENTROPY_FIX_COEFF= 1e-5
MUSCL_FLOW= YES
SLOPE_LIMITER_FLOW= VENKATAKRISHNAN
VENKAT_LIMITER_COEFF= 0.1
%
CONV_NUM_METHOD_TURB= SCALAR_UPWIND
MUSCL_TURB= NO
%
% -------------------------- MULTIGRID PARAMETERS ----------------------------%
%
MGLEVEL= 3
MGCYCLE= V_CYCLE
MG_PRE_SMOOTH= ( 1, 2, 3, 3 )
MG_POST_SMOOTH= ( 2, 2, 2, 2 )
MG_CORRECTION_SMOOTH= ( 0, 0, 0, 0 )
MG_DAMP_RESTRICTION= 0.8
MG_DAMP_PROLONGATION= 0.8
%
% ---------- PSEUDOTIME INTEGRATION / CONVERGENCE ACCELERATION -------------- %
%
TIME_DISCRE_FLOW= EULER_IMPLICIT
TIME_DISCRE_TURB= EULER_IMPLICIT
%
CFL_NUMBER= 1.0
CFL_REDUCTION_TURB= 1.0
CFL_ADAPT= YES
CFL_ADAPT_PARAM= ( 1.0, 1.05, 1, 100, 0.8 )
%
LINEAR_SOLVER= FGMRES
LINEAR_SOLVER_PREC= ILU
LINEAR_SOLVER_ERROR= 0.0001
LINEAR_SOLVER_ITER= 3
%
NEWTON_KRYLOV= YES
NEWTON_KRYLOV_IPARAM= ( 0, 3, 1 )
NEWTON_KRYLOV_DPARAM= ( 0.0, 1e-20, -3, 1e-5 )
%
% --------------------------- CONVERGENCE PARAMETERS -------------------------%
%
ITER= 10000
CONV_RESIDUAL_MINVAL= -15
CONV_STARTITER= 10
CONV_CAUCHY_ELEMS= 100
CONV_CAUCHY_EPS= 1E-5
%
% ------------------------- INPUT/OUTPUT INFORMATION -------------------------%
%
MESH_FILENAME= mesh.su2
MESH_FORMAT= SU2
TABULAR_FORMAT= CSV
CONV_FILENAME= history
RESTART_FILENAME= restart_flow.dat
VOLUME_FILENAME= flow
SURFACE_FILENAME= surface_flow
OUTPUT_WRT_FREQ= 500
SCREEN_WRT_FREQ_INNER= 1
HISTORY_OUTPUT= ( ITER, RMS_RES, AERO_COEFF )
SCREEN_OUTPUT= ( INNER_ITER, RMS_RES, FORCE_X, LINSOL_RESIDUAL, AVG_CFL )
